tests/data/short_circuit/two_phase_ab/asym_sc_output_batch.json
[
  {
    "node":
      [
        {"id": 0, "u_pu": [0.8339083271798209, 0.9673876629008664, 0.9549178929785012], "u_angle": [0.01659615781831525, -2.0163433080555206, 2.022588019841834], "u": [72218.57957651102, 83778.22913798074, 82698.3153847692]},
        {"id": 1, "u_pu": [0.5000056291359048, 0.5000056291359048, 1.0000112582718093], "u_angle": [-1.5707984946770859, -1.5707984946770865, 1.5707941589127075], "u": [2886.7838457794287, 2886.7838457794287, 5773.567691558856]},
        {"id": 2, "u_pu": [0.980621933116137, 0.9752041366223957, 1.0000013163689014], "u_angle": [-0.5413390871949014, -2.6095659952783925, 1.5707962283570536], "u": [5661.623370578529, 5630.343707937768, 5773.510291955654]},
        {"id": 3, "u_pu": [0.9806257039246384, 0.9752078865977176, 1.0000051616973995], "u_angle": [-0.5413403187039569, -2.609567226787448, 1.570794996847998], "u": [5661.645141351562, 5630.365358430384, 5773.532492970088]}
      ],
    "transformer":
      [
        {"id": 6, "i_from": [2153.4016426516973, 1718.5277771893477, 740.7061616979057], "i_from_angle": [-0.758515660048081, 2.6960456723291695, 1.5874119844346994], "i_to": [28710.39242003104, 11546.917905101322, 20442.447688722834], "i_to_angle": [2.5218428470134753, 1.1356675498319798e-06, -0.9540235947914661]}
      ],
    "line":
      [
        {"id": 7, "i_from": [30202.686344356433, 30202.78776979061, 0.22079813953139943], "i_from_angle": [1.8744289440401567, -1.2671572159595268, 2.9679560066473902], "i_to": [30202.395336008314, 30202.14967448055, 0.9441317795134971], "i_to_angle": [-1.2671404449501487, 1.874422025105028, -3.1011794827722747]},
        {"id": 8, "i_from": [0.5691695547561085, 0.5660249740436999, 0.5804176765498911], "i_from_angle": [1.0294566238810845, -1.038770284203696, 3.1415919394307963], "i_to": [2.8293876292421683e-11, 2.8211338807607143e-11, 2.7620111656731772e-11], "i_to_angle": [-1.200014642999886, 2.963016310036589, 0.8841078187375131]}
      ],
    "fault":
      [
        {"id": 10, "i": [46439.21174994912, 46439.21174994912, 0.0], "i_angle": [1.7725785803715302, -1.369014073218263, 3.141592653589793]}
      ],
    "shunt":
      [
        {"id": 9, "i": [0.0, 0.0, 0.0], "i_angle": [3.141592653589793, 3.141592653589793, 3.141592653589793]}
      ],
    "source":
      [
        {"id": 4, "i": [1283.885859137976, 641.9405192438862, 641.9453401381861], "i_angle": [1.5873924846132121, -1.5542196689445058, -1.5541806691550974]},
        {"id": 5, "i": [30202.017561490742, 30201.598349540745, 1.5242559305299488], "i_angle": [1.8744663044104322, -1.2671748719424805, 0.025027648433543107]}
      ]
  }
,
  {
    "node":
      [
        {"id": 0, "u_pu": [0.8339083271798209, 0.9673876629008664, 0.9549178929785012], "u_angle": [0.01659615781831525, -2.0163433080555206, 2.022588019841834], "u": [72218.57957651102, 83778.22913798074, 82698.3153847692]},
        {"id": 1, "u_pu": [0.5000056291359048, 0.5000056291359048, 1.0000112582718093], "u_angle": [-1.5707984946770859, -1.5707984946770865, 1.5707941589127075], "u": [2886.7838457794287, 2886.7838457794287, 5773.567691558856]},
        {"id": 2, "u_pu": [0.980621933116137, 0.9752041366223957, 1.0000013163689014], "u_angle": [-0.5413390871949014, -2.6095659952783925, 1.5707962283570536], "u": [5661.623370578529, 5630.343707937768, 5773.510291955654]},
        {"id": 3, "u_pu": [0.9806257039246384, 0.9752078865977176, 1.0000051616973995], "u_angle": [-0.5413403187039569, -2.609567226787448, 1.570794996847998], "u": [5661.645141351562, 5630.365358430384, 5773.532492970088]}
      ],
    "transformer":
      [
        {"id": 6, "i_from": [2153.4016426516973, 1718.5277771893477, 740.7061616979057], "i_from_angle": [-0.758515660048081, 2.6960456723291695, 1.5874119844346994], "i_to": [28710.39242003104, 11546.917905101322, 20442.447688722834], "i_to_angle": [2.5218428470134753, 1.1356675498319798e-06, -0.9540235947914661]}
      ],
    "line":
      [
        {"id": 7, "i_from": [30202.686344356433, 30202.78776979061, 0.22079813953139943], "i_from_angle": [1.8744289440401567, -1.2671572159595268, 2.9679560066473902], "i_to": [30202.395336008314, 30202.14967448055, 0.9441317795134971], "i_to_angle": [-1.2671404449501487, 1.874422025105028, -3.1011794827722747]},
        {"id": 8, "i_from": [0.5691695547561085, 0.5660249740436999, 0.5804176765498911], "i_from_angle": [1.0294566238810845, -1.038770284203696, 3.1415919394307963], "i_to": [2.8293876292421683e-11, 2.8211338807607143e-11, 2.7620111656731772e-11], "i_to_angle": [-1.200014642999886, 2.963016310036589, 0.8841078187375131]}
      ],
    "fault":
      [
        {"id": 10, "i": [46439.21174994912, 46439.21174994912, 0.0], "i_angle": [1.7725785803715302, -1.369014073218263, 3.141592653589793]}
      ],
    "source":
      [
        {"id": 4, "i": [1283.885859137976, 641.9405192438862, 641.9453401381861], "i_angle": [1.5873924846132121, -1.5542196689445058, -1.5541806691550974]},
        {"id": 5, "i": [30202.017561490742, 30201.598349540745, 1.5242559305299488], "i_angle": [1.8744663044104322, -1.2671748719424805, 0.025027648433543107]}
      ]
  }
,
  {
    "node":
      [
        {"id": 0, "u_pu": [0.833908327179821, 0.8843957837125669, 0.8705419063370642], "u_angle": [0.01659615781831531, -2.0639278851117586, 2.0678827049457325], "u": [72218.57957651104, 76590.92156949309, 75391.14059468311]},
        {"id": 1, "u_pu": [0.17957189282984465, 0.17957189282984462, 0.3591437856596892], "u_angle": [-1.755984590435404, -1.7559845904354046, 1.3856080631543892], "u": [1036.7588066420144, 1036.7588066420142, 2073.5176132840284]},
        {"id": 2, "u_pu": [0.0054235626619521995, 0.0054235626619521995, 0.010847125323904395], "u_angle": [-1.5520173788807992, -1.5520173788807992, 1.5895752747089944], "u": [31.31295362844906, 31.31295362844906, 62.6259072568981]},
        {"id": 3, "u_pu": [0.005423583517304809, 0.0054235835173048075, 0.010847167034609617], "u_angle": [-1.552018610389855, -1.5520186103898546, 1.5895740431999386], "u": [31.313074036883492, 31.31307403688348, 62.62614807376698]}
      ],
    "transformer":
      [
        {"id": 6, "i_from": [1681.6498621308147, 1571.0958270665249, 1170.6897901741602], "i_from_angle": [-1.2264675139015169, 2.648461095272931, 0.7992689674149958], "i_to": [22792.75103848328, 16528.870106530285, 18275.02804933436], "i_to_angle": [2.2687413172048263, 0.04336495352101315, -1.673064269753935]}
      ],
    "line":
      [
        {"id": 7, "i_from": [6262.485002565073, 6262.485002565069, 12524.97000513014], "i_from_angle": [-3.0231399770395475, -3.023139977039548, 0.11845267655024568], "i_to": [6262.587593385084, 6262.58759338508, 12525.175186770162], "i_to_angle": [0.11844765042171337, 0.11844765042171276, -3.02314500316808]},
        {"id": 8, "i_from": [0.0031479274949907372, 0.0031479274947687806, 0.006295854989759518], "i_from_angle": [0.018778332121054685, 0.01877833214656457, -3.122814321455983], "i_to": [1.1784592668312604e-13, 1.7270894416674843e-13, 2.0869043056421321e-13], "i_to_angle": [1.683725373399071, 0.10889165407168411, -2.4326459279957997]}
      ],
    "fault":
      [
        {"id": 10, "i": [16678.166543596417, 16678.166543596417, 0.0], "i_angle": [1.5873924846132121, -1.554200168976581, 3.141592653589793]}
      ],
    "shunt":
      [
        {"id": 9, "i": [0.0, 0.0, 0.0], "i_angle": [3.141592653589793, 3.141592653589793, 3.141592653589793]}
      ],
    "source":
      [
        {"id": 4, "i": [1283.885859137975, 916.8452475272559, 1014.5978181509402], "i_angle": [1.587392484613212, -0.6521058404250751, -2.342323686174798]}
      ]
  }
,
  {
    "node":
      [
        {"id": 0, "u_pu": [0.833908327179821, 0.8843957837125669, 0.8705419063370642], "u_angle": [0.01659615781831531, -2.0639278851117586, 2.0678827049457325], "u": [72218.57957651104, 76590.92156949309, 75391.14059468311]},
        {"id": 1, "u_pu": [0.17957189282984465, 0.17957189282984462, 0.3591437856596892], "u_angle": [-1.755984590435404, -1.7559845904354046, 1.3856080631543892], "u": [1036.7588066420144, 1036.7588066420142, 2073.5176132840284]},
        {"id": 2, "u_pu": [0.0054235626619521995, 0.0054235626619521995, 0.010847125323904395], "u_angle": [-1.5520173788807992, -1.5520173788807992, 1.5895752747089944], "u": [31.31295362844906, 31.31295362844906, 62.6259072568981]},
        {"id": 3, "u_pu": [0.005423583517304809, 0.0054235835173048075, 0.010847167034609617], "u_angle": [-1.552018610389855, -1.5520186103898546, 1.5895740431999386], "u": [31.313074036883492, 31.31307403688348, 62.62614807376698]}
      ],
    "transformer":
      [
        {"id": 6, "i_from": [1681.6498621308147, 1571.0958270665249, 1170.6897901741602], "i_from_angle": [-1.2264675139015169, 2.648461095272931, 0.7992689674149958], "i_to": [22792.75103848328, 16528.870106530285, 18275.02804933436], "i_to_angle": [2.2687413172048263, 0.04336495352101315, -1.673064269753935]}
      ],
    "line":
      [
        {"id": 7, "i_from": [6262.485002565073, 6262.485002565069, 12524.97000513014], "i_from_angle": [-3.0231399770395475, -3.023139977039548, 0.11845267655024568], "i_to": [6262.587593385084, 6262.58759338508, 12525.175186770162], "i_to_angle": [0.11844765042171337, 0.11844765042171276, -3.02314500316808]},
        {"id": 8, "i_from": [0.0031479274949907372, 0.0031479274947687806, 0.006295854989759518], "i_from_angle": [0.018778332121054685, 0.01877833214656457, -3.122814321455983], "i_to": [1.1784592668312604e-13, 1.7270894416674843e-13, 2.0869043056421321e-13], "i_to_angle": [1.683725373399071, 0.10889165407168411, -2.4326459279957997]}
      ],
    "fault":
      [
        {"id": 10, "i": [16678.166543596417, 16678.166543596417, 0.0], "i_angle": [1.5873924846132121, -1.554200168976581, 3.141592653589793]}
      ],
    "source":
      [
        {"id": 4, "i": [1283.885859137975, 916.8452475272559, 1014.5978181509402], "i_angle": [1.587392484613212, -0.6521058404250751, -2.342323686174798]}
      ]
  }
,
  {
    "node":
      [
        {"id": 0, "u_pu": [0.8339083271798209, 0.9673876629008664, 0.9549178929785012], "u_angle": [0.01659615781831525, -2.0163433080555206, 2.022588019841834], "u": [72218.57957651102, 83778.22913798074, 82698.3153847692]},
        {"id": 1, "u_pu": [0.5000056291359048, 0.5000056291359048, 1.0000112582718093], "u_angle": [-1.5707984946770859, -1.5707984946770865, 1.5707941589127075], "u": [2886.7838457794287, 2886.7838457794287, 5773.567691558856]},
        {"id": 2, "u_pu": [0.980621933116137, 0.9752041366223957, 1.0000013163689014], "u_angle": [-0.5413390871949014, -2.6095659952783925, 1.5707962283570536], "u": [5661.623370578529, 5630.343707937768, 5773.510291955654]},
        {"id": 3, "u_pu": [0.9806257039246384, 0.9752078865977176, 1.0000051616973995], "u_angle": [-0.5413403187039569, -2.609567226787448, 1.570794996847998], "u": [5661.645141351562, 5630.365358430384, 5773.532492970088]}
      ],
    "transformer":
      [
        {"id": 6, "i_from": [2153.4016426516973, 1718.5277771893477, 740.7061616979057], "i_from_angle": [-0.758515660048081, 2.6960456723291695, 1.5874119844346994], "i_to": [28710.39242003104, 11546.917905101322, 20442.447688722834], "i_to_angle": [2.5218428470134753, 1.1356675498319798e-06, -0.9540235947914661]}
      ],
    "line":
      [
        {"id": 7, "i_from": [30202.686344356433, 30202.78776979061, 0.22079813953139943], "i_from_angle": [1.8744289440401567, -1.2671572159595268, 2.9679560066473902], "i_to": [30202.395336008314, 30202.14967448055, 0.9441317795134971], "i_to_angle": [-1.2671404449501487, 1.874422025105028, -3.1011794827722747]},
        {"id": 8, "i_from": [0.5691695547561085, 0.5660249740436999, 0.5804176765498911], "i_from_angle": [1.0294566238810845, -1.038770284203696, 3.1415919394307963], "i_to": [2.8293876292421683e-11, 2.8211338807607143e-11, 2.7620111656731772e-11], "i_to_angle": [-1.200014642999886, 2.963016310036589, 0.8841078187375131]}
      ],
    "fault":
      [
        {"id": 10, "i": [46439.21174994912, 46439.21174994912, 0.0], "i_angle": [1.7725785803715302, -1.369014073218263, 3.141592653589793]}
      ],
    "shunt":
      [
        {"id": 9, "i": [0.0, 0.0, 0.0], "i_angle": [3.141592653589793, 3.141592653589793, 3.141592653589793]}
      ],
    "source":
      [
        {"id": 4, "i": [1283.885859137976, 641.9405192438862, 641.9453401381861], "i_angle": [1.5873924846132121, -1.5542196689445058, -1.5541806691550974]},
        {"id": 5, "i": [30202.017561490742, 30201.598349540745, 1.5242559305299488], "i_angle": [1.8744663044104322, -1.2671748719424805, 0.025027648433543107]}
      ]
  }
,
  {
    "node":
      [
        {"id": 0, "u_pu": [0.8339083271798209, 0.9673876629008664, 0.9549178929785012], "u_angle": [0.01659615781831525, -2.0163433080555206, 2.022588019841834], "u": [72218.57957651102, 83778.22913798074, 82698.3153847692]},
        {"id": 1, "u_pu": [0.5000056291359048, 0.5000056291359048, 1.0000112582718093], "u_angle": [-1.5707984946770859, -1.5707984946770865, 1.5707941589127075], "u": [2886.7838457794287, 2886.7838457794287, 5773.567691558856]},
        {"id": 2, "u_pu": [0.980621933116137, 0.9752041366223957, 1.0000013163689014], "u_angle": [-0.5413390871949014, -2.6095659952783925, 1.5707962283570536], "u": [5661.623370578529, 5630.343707937768, 5773.510291955654]},
        {"id": 3, "u_pu": [0.9806257039246384, 0.9752078865977176, 1.0000051616973995], "u_angle": [-0.5413403187039569, -2.609567226787448, 1.570794996847998], "u": [5661.645141351562, 5630.365358430384, 5773.532492970088]}
      ],
    "transformer":
      [
        {"id": 6, "i_from": [2153.4016426516973, 1718.5277771893477, 740.7061616979057], "i_from_angle": [-0.758515660048081, 2.6960456723291695, 1.5874119844346994], "i_to": [28710.39242003104, 11546.917905101322, 20442.447688722834], "i_to_angle": [2.5218428470134753, 1.1356675498319798e-06, -0.9540235947914661]}
      ],
    "line":
      [
        {"id": 7, "i_from": [30202.686344356433, 30202.78776979061, 0.22079813953139943], "i_from_angle": [1.8744289440401567, -1.2671572159595268, 2.9679560066473902], "i_to": [30202.395336008314, 30202.14967448055, 0.9441317795134971], "i_to_angle": [-1.2671404449501487, 1.874422025105028, -3.1011794827722747]},
        {"id": 8, "i_from": [0.5691695547561085, 0.5660249740436999, 0.5804176765498911], "i_from_angle": [1.0294566238810845, -1.038770284203696, 3.1415919394307963], "i_to": [2.8293876292421683e-11, 2.8211338807607143e-11, 2.7620111656731772e-11], "i_to_angle": [-1.200014642999886, 2.963016310036589, 0.8841078187375131]}
      ],
    "fault":
      [
        {"id": 10, "i": [46439.21174994912, 46439.21174994912, 0.0], "i_angle": [1.7725785803715302, -1.369014073218263, 3.141592653589793]}
      ],
    "source":
      [
        {"id": 4, "i": [1283.885859137976, 641.9405192438862, 641.9453401381861], "i_angle": [1.5873924846132121, -1.5542196689445058, -1.5541806691550974]},
        {"id": 5, "i": [30202.017561490742, 30201.598349540745, 1.5242559305299488], "i_angle": [1.8744663044104322, -1.2671748719424805, 0.025027648433543107]}
      ]
  }
,
  {
    "node":
      [
        {"id": 0, "u_pu": [0.833908327179821, 0.8843957837125669, 0.8705419063370642], "u_angle": [0.01659615781831531, -2.0639278851117586, 2.0678827049457325], "u": [72218.57957651104, 76590.92156949309, 75391.14059468311]},
        {"id": 1, "u_pu": [0.17957189282984465, 0.17957189282984462, 0.3591437856596892], "u_angle": [-1.755984590435404, -1.7559845904354046, 1.3856080631543892], "u": [1036.7588066420144, 1036.7588066420142, 2073.5176132840284]},
        {"id": 2, "u_pu": [0.0054235626619521995, 0.0054235626619521995, 0.010847125323904395], "u_angle": [-1.5520173788807992, -1.5520173788807992, 1.5895752747089944], "u": [31.31295362844906, 31.31295362844906, 62.6259072568981]},
        {"id": 3, "u_pu": [0.005423583517304809, 0.0054235835173048075, 0.010847167034609617], "u_angle": [-1.552018610389855, -1.5520186103898546, 1.5895740431999386], "u": [31.313074036883492, 31.31307403688348, 62.62614807376698]}
      ],
    "transformer":
      [
        {"id": 6, "i_from": [1681.6498621308147, 1571.0958270665249, 1170.6897901741602], "i_from_angle": [-1.2264675139015169, 2.648461095272931, 0.7992689674149958], "i_to": [22792.75103848328, 16528.870106530285, 18275.02804933436], "i_to_angle": [2.2687413172048263, 0.04336495352101315, -1.673064269753935]}
      ],
    "line":
      [
        {"id": 7, "i_from": [6262.485002565073, 6262.485002565069, 12524.97000513014], "i_from_angle": [-3.0231399770395475, -3.023139977039548, 0.11845267655024568], "i_to": [6262.587593385084, 6262.58759338508, 12525.175186770162], "i_to_angle": [0.11844765042171337, 0.11844765042171276, -3.02314500316808]},
        {"id": 8, "i_from": [0.0031479274949907372, 0.0031479274947687806, 0.006295854989759518], "i_from_angle": [0.018778332121054685, 0.01877833214656457, -3.122814321455983], "i_to": [1.1784592668312604e-13, 1.7270894416674843e-13, 2.0869043056421321e-13], "i_to_angle": [1.683725373399071, 0.10889165407168411, -2.4326459279957997]}
      ],
    "fault":
      [
        {"id": 10, "i": [16678.166543596417, 16678.166543596417, 0.0], "i_angle": [1.5873924846132121, -1.554200168976581, 3.141592653589793]}
      ],
    "shunt":
      [
        {"id": 9, "i": [0.0, 0.0, 0.0], "i_angle": [3.141592653589793, 3.141592653589793, 3.141592653589793]}
      ],
    "source":
      [
        {"id": 4, "i": [1283.885859137975, 916.8452475272559, 1014.5978181509402], "i_angle": [1.587392484613212, -0.6521058404250751, -2.342323686174798]}
      ]
  }
,
  {
    "node":
      [
        {"id": 0, "u_pu": [0.833908327179821, 0.8843957837125669, 0.8705419063370642], "u_angle": [0.01659615781831531, -2.0639278851117586, 2.0678827049457325], "u": [72218.57957651104, 76590.92156949309, 75391.14059468311]},
        {"id": 1, "u_pu": [0.17957189282984465, 0.17957189282984462, 0.3591437856596892], "u_angle": [-1.755984590435404, -1.7559845904354046, 1.3856080631543892], "u": [1036.7588066420144, 1036.7588066420142, 2073.5176132840284]},
        {"id": 2, "u_pu": [0.0054235626619521995, 0.0054235626619521995, 0.010847125323904395], "u_angle": [-1.5520173788807992, -1.5520173788807992, 1.5895752747089944], "u": [31.31295362844906, 31.31295362844906, 62.6259072568981]},
        {"id": 3, "u_pu": [0.005423583517304809, 0.0054235835173048075, 0.010847167034609617], "u_angle": [-1.552018610389855, -1.5520186103898546, 1.5895740431999386], "u": [31.313074036883492, 31.31307403688348, 62.62614807376698]}
      ],
    "transformer":
      [
        {"id": 6, "i_from": [1681.6498621308147, 1571.0958270665249, 1170.6897901741602], "i_from_angle": [-1.2264675139015169, 2.648461095272931, 0.7992689674149958], "i_to": [22792.75103848328, 16528.870106530285, 18275.02804933436], "i_to_angle": [2.2687413172048263, 0.04336495352101315, -1.673064269753935]}
      ],
    "line":
      [
        {"id": 7, "i_from": [6262.485002565073, 6262.485002565069, 12524.97000513014], "i_from_angle": [-3.0231399770395475, -3.023139977039548, 0.11845267655024568], "i_to": [6262.587593385084, 6262.58759338508, 12525.175186770162], "i_to_angle": [0.11844765042171337, 0.11844765042171276, -3.02314500316808]},
        {"id": 8, "i_from": [0.0031479274949907372, 0.0031479274947687806, 0.006295854989759518], "i_from_angle": [0.018778332121054685, 0.01877833214656457, -3.122814321455983], "i_to": [1.1784592668312604e-13, 1.7270894416674843e-13, 2.0869043056421321e-13], "i_to_angle": [1.683725373399071, 0.10889165407168411, -2.4326459279957997]}
      ],
    "fault":
      [
        {"id": 10, "i": [16678.166543596417, 16678.166543596417, 0.0], "i_angle": [1.5873924846132121, -1.554200168976581, 3.141592653589793]}
      ],
    "source":
      [
        {"id": 4, "i": [1283.885859137975, 916.8452475272559, 1014.5978181509402], "i_angle": [1.587392484613212, -0.6521058404250751, -2.342323686174798]}
      ]
  }
,
  {
    "node":
      [
        {"id": 0, "u_pu": [0.8339083271798209, 0.9673876629008664, 0.9549178929785012], "u_angle": [0.01659615781831525, -2.0163433080555206, 2.022588019841834], "u": [72218.57957651102, 83778.22913798074, 82698.3153847692]},
        {"id": 1, "u_pu": [0.5000056291359048, 0.5000056291359048, 1.0000112582718093], "u_angle": [-1.5707984946770859, -1.5707984946770865, 1.5707941589127075], "u": [2886.7838457794287, 2886.7838457794287, 5773.567691558856]},
        {"id": 2, "u_pu": [0.980621933116137, 0.9752041366223957, 1.0000013163689014], "u_angle": [-0.5413390871949014, -2.6095659952783925, 1.5707962283570536], "u": [5661.623370578529, 5630.343707937768, 5773.510291955654]},
        {"id": 3, "u_pu": [0.9806257039246384, 0.9752078865977176, 1.0000051616973995], "u_angle": [-0.5413403187039569, -2.609567226787448, 1.570794996847998], "u": [5661.645141351562, 5630.365358430384, 5773.532492970088]}
      ],
    "transformer":
      [
        {"id": 6, "i_from": [2153.4016426516973, 1718.5277771893477, 740.7061616979057], "i_from_angle": [-0.758515660048081, 2.6960456723291695, 1.5874119844346994], "i_to": [28710.39242003104, 11546.917905101322, 20442.447688722834], "i_to_angle": [2.5218428470134753, 1.1356675498319798e-06, -0.9540235947914661]}
      ],
    "line":
      [
        {"id": 7, "i_from": [30202.686344356433, 30202.78776979061, 0.22079813953139943], "i_from_angle": [1.8744289440401567, -1.2671572159595268, 2.9679560066473902], "i_to": [30202.395336008314, 30202.14967448055, 0.9441317795134971], "i_to_angle": [-1.2671404449501487, 1.874422025105028, -3.1011794827722747]},
        {"id": 8, "i_from": [0.5691695547561085, 0.5660249740436999, 0.5804176765498911], "i_from_angle": [1.0294566238810845, -1.038770284203696, 3.1415919394307963], "i_to": [2.8293876292421683e-11, 2.8211338807607143e-11, 2.7620111656731772e-11], "i_to_angle": [-1.200014642999886, 2.963016310036589, 0.8841078187375131]}
      ],
    "fault":
      [
        {"id": 10, "i": [46439.21174994912, 46439.21174994912, 0.0], "i_angle": [1.7725785803715302, -1.369014073218263, 3.141592653589793]}
      ],
    "shunt":
      [
        {"id": 9, "i": [0.0, 0.0, 0.0], "i_angle": [3.141592653589793, 3.141592653589793, 3.141592653589793]}
      ],
    "source":
      [
        {"id": 4, "i": [1283.885859137976, 641.9405192438862, 641.9453401381861], "i_angle": [1.5873924846132121, -1.5542196689445058, -1.5541806691550974]},
        {"id": 5, "i": [30202.017561490742, 30201.598349540745, 1.5242559305299488], "i_angle": [1.8744663044104322, -1.2671748719424805, 0.025027648433543107]}
      ]
  }
,
  {
    "node":
      [
        {"id": 0, "u_pu": [0.8339083271798209, 0.9673876629008664, 0.9549178929785012], "u_angle": [0.01659615781831525, -2.0163433080555206, 2.022588019841834], "u": [72218.57957651102, 83778.22913798074, 82698.3153847692]},
        {"id": 1, "u_pu": [0.5000056291359048, 0.5000056291359048, 1.0000112582718093], "u_angle": [-1.5707984946770859, -1.5707984946770865, 1.5707941589127075], "u": [2886.7838457794287, 2886.7838457794287, 5773.567691558856]},
        {"id": 2, "u_pu": [0.980621933116137, 0.9752041366223957, 1.0000013163689014], "u_angle": [-0.5413390871949014, -2.6095659952783925, 1.5707962283570536], "u": [5661.623370578529, 5630.343707937768, 5773.510291955654]},
        {"id": 3, "u_pu": [0.9806257039246384, 0.9752078865977176, 1.0000051616973995], "u_angle": [-0.5413403187039569, -2.609567226787448, 1.570794996847998], "u": [5661.645141351562, 5630.365358430384, 5773.532492970088]}
      ],
    "transformer":
      [
        {"id": 6, "i_from": [2153.4016426516973, 1718.5277771893477, 740.7061616979057], "i_from_angle": [-0.758515660048081, 2.6960456723291695, 1.5874119844346994], "i_to": [28710.39242003104, 11546.917905101322, 20442.447688722834], "i_to_angle": [2.5218428470134753, 1.1356675498319798e-06, -0.9540235947914661]}
      ],
    "line":
      [
        {"id": 7, "i_from": [30202.686344356433, 30202.78776979061, 0.22079813953139943], "i_from_angle": [1.8744289440401567, -1.2671572159595268, 2.9679560066473902], "i_to": [30202.395336008314, 30202.14967448055, 0.9441317795134971], "i_to_angle": [-1.2671404449501487, 1.874422025105028, -3.1011794827722747]},
        {"id": 8, "i_from": [0.5691695547561085, 0.5660249740436999, 0.5804176765498911], "i_from_angle": [1.0294566238810845, -1.038770284203696, 3.1415919394307963], "i_to": [2.8293876292421683e-11, 2.8211338807607143e-11, 2.7620111656731772e-11], "i_to_angle": [-1.200014642999886, 2.963016310036589, 0.8841078187375131]}
      ],
    "fault":
      [
        {"id": 10, "i": [46439.21174994912, 46439.21174994912, 0.0], "i_angle": [1.7725785803715302, -1.369014073218263, 3.141592653589793]}
      ],
    "source":
      [
        {"id": 4, "i": [1283.885859137976, 641.9405192438862, 641.9453401381861], "i_angle": [1.5873924846132121, -1.5542196689445058, -1.5541806691550974]},
        {"id": 5, "i": [30202.017561490742, 30201.598349540745, 1.5242559305299488], "i_angle": [1.8744663044104322, -1.2671748719424805, 0.025027648433543107]}
      ]
  }
,
  {
    "node":
      [
        {"id": 0, "u_pu": [0.833908327179821, 0.8843957837125669, 0.8705419063370642], "u_angle": [0.01659615781831531, -2.0639278851117586, 2.0678827049457325], "u": [72218.57957651104, 76590.92156949309, 75391.14059468311]},
        {"id": 1, "u_pu": [0.17957189282984465, 0.17957189282984462, 0.3591437856596892], "u_angle": [-1.755984590435404, -1.7559845904354046, 1.3856080631543892], "u": [1036.7588066420144, 1036.7588066420142, 2073.5176132840284]},
        {"id": 2, "u_pu": [0.0054235626619521995, 0.0054235626619521995, 0.010847125323904395], "u_angle": [-1.5520173788807992, -1.5520173788807992, 1.5895752747089944], "u": [31.31295362844906, 31.31295362844906, 62.6259072568981]},
        {"id": 3, "u_pu": [0.005423583517304809, 0.0054235835173048075, 0.010847167034609617], "u_angle": [-1.552018610389855, -1.5520186103898546, 1.5895740431999386], "u": [31.313074036883492, 31.31307403688348, 62.62614807376698]}
      ],
    "transformer":
      [
        {"id": 6, "i_from": [1681.6498621308147, 1571.0958270665249, 1170.6897901741602], "i_from_angle": [-1.2264675139015169, 2.648461095272931, 0.7992689674149958], "i_to": [22792.75103848328, 16528.870106530285, 18275.02804933436], "i_to_angle": [2.2687413172048263, 0.04336495352101315, -1.673064269753935]}
      ],
    "line":
      [
        {"id": 7, "i_from": [6262.485002565073, 6262.485002565069, 12524.97000513014], "i_from_angle": [-3.0231399770395475, -3.023139977039548, 0.11845267655024568], "i_to": [6262.587593385084, 6262.58759338508, 12525.175186770162], "i_to_angle": [0.11844765042171337, 0.11844765042171276, -3.02314500316808]},
        {"id": 8, "i_from": [0.0031479274949907372, 0.0031479274947687806, 0.006295854989759518], "i_from_angle": [0.018778332121054685, 0.01877833214656457, -3.122814321455983], "i_to": [1.1784592668312604e-13, 1.7270894416674843e-13, 2.0869043056421321e-13], "i_to_angle": [1.683725373399071, 0.10889165407168411, -2.4326459279957997]}
      ],
    "fault":
      [
        {"id": 10, "i": [16678.166543596417, 16678.166543596417, 0.0], "i_angle": [1.5873924846132121, -1.554200168976581, 3.141592653589793]}
      ],
    "shunt":
      [
        {"id": 9, "i": [0.0, 0.0, 0.0], "i_angle": [3.141592653589793, 3.141592653589793, 3.141592653589793]}
      ],
    "source":
      [
        {"id": 4, "i": [1283.885859137975, 916.8452475272559, 1014.5978181509402], "i_angle": [1.587392484613212, -0.6521058404250751, -2.342323686174798]}
      ]
  }
,
  {
    "node":
      [
        {"id": 0, "u_pu": [0.833908327179821, 0.8843957837125669, 0.8705419063370642], "u_angle": [0.01659615781831531, -2.0639278851117586, 2.0678827049457325], "u": [72218.57957651104, 76590.92156949309, 75391.14059468311]},
        {"id": 1, "u_pu": [0.17957189282984465, 0.17957189282984462, 0.3591437856596892], "u_angle": [-1.755984590435404, -1.7559845904354046, 1.3856080631543892], "u": [1036.7588066420144, 1036.7588066420142, 2073.5176132840284]},
        {"id": 2, "u_pu": [0.0054235626619521995, 0.0054235626619521995, 0.010847125323904395], "u_angle": [-1.5520173788807992, -1.5520173788807992, 1.5895752747089944], "u": [31.31295362844906, 31.31295362844906, 62.6259072568981]},
        {"id": 3, "u_pu": [0.005423583517304809, 0.0054235835173048075, 0.010847167034609617], "u_angle": [-1.552018610389855, -1.5520186103898546, 1.5895740431999386], "u": [31.313074036883492, 31.31307403688348, 62.62614807376698]}
      ],
    "transformer":
      [
        {"id": 6, "i_from": [1681.6498621308147, 1571.0958270665249, 1170.6897901741602], "i_from_angle": [-1.2264675139015169, 2.648461095272931, 0.7992689674149958], "i_to": [22792.75103848328, 16528.870106530285, 18275.02804933436], "i_to_angle": [2.2687413172048263, 0.04336495352101315, -1.673064269753935]}
      ],
    "line":
      [
        {"id": 7, "i_from": [6262.485002565073, 6262.485002565069, 12524.97000513014], "i_from_angle": [-3.0231399770395475, -3.023139977039548, 0.11845267655024568], "i_to": [6262.587593385084, 6262.58759338508, 12525.175186770162], "i_to_angle": [0.11844765042171337, 0.11844765042171276, -3.02314500316808]},
        {"id": 8, "i_from": [0.0031479274949907372, 0.0031479274947687806, 0.006295854989759518], "i_from_angle": [0.018778332121054685, 0.01877833214656457, -3.122814321455983], "i_to": [1.1784592668312604e-13, 1.7270894416674843e-13, 2.0869043056421321e-13], "i_to_angle": [1.683725373399071, 0.10889165407168411, -2.4326459279957997]}
      ],
    "fault":
      [
        {"id": 10, "i": [16678.166543596417, 16678.166543596417, 0.0], "i_angle": [1.5873924846132121, -1.554200168976581, 3.141592653589793]}
      ],
    "source":
      [
        {"id": 4, "i": [1283.885859137975, 916.8452475272559, 1014.5978181509402], "i_angle": [1.587392484613212, -0.6521058404250751, -2.342323686174798]}
      ]
  }
,
  {
    "node":
      [
...